/*--------------------------------*- C++ -*----------------------------------*\
| =========                 |                                                 |
| \\      /  F ield         | OpenFOAM: The Open Source CFD Toolbox           |
|  \\    /   O peration     | Version:  2.4.0                                 |
|   \\  /    A nd           | Web:      www.OpenFOAM.org                      |
|    \\/     M anipulation  |                                                 |
\*---------------------------------------------------------------------------*/
FoamFile
{
    version     2.0;
    format      ascii;
    class       dictionary;
    object      blockMeshDict;
}
// * * * * * * * * * * * * * * * * * * * * * * * * * * * * * * * * * * * * * //

convertToMeters 1.0;

vertices
(
    (-30 0 0)	    //0
    (0 0 0)	    //1
    (0 0.5 0)	    //2
    (-30 0.5 0)	    //3
    (-30 0 0.1)	    //4
    (0 0 0.1)	    //5
    (0 0.5 0.1)     //6
    (-30 0.5 0.1)   //7
    (30 0 0)	    //8
    (30 0.5 0)	    //9
    (30 0 0.1)	    //10
    (30 0.5 0.1)    //11
    (0 -0.5 0)	    //12
    (0 -0.5 0.1)    //13
    (30 -0.5 0)	    //14
    (30 -0.5 0.1)   //15
);

blocks
(
    hex (0 1 2 3 4 5 6 7) (300 5 1) simpleGrading (1 1 1) //Upstream block
    hex (1 8 9 2 5 10 11 6) (300 5 1) simpleGrading (1 1 1) //Top block downstream of step
    hex (12 14 8 1 13 15 10 5) (300 5 1) simpleGrading (1 1 1) //Bottom block downstream of step
);

edges
(
);

boundary
(
    top
    {
        type wall;
        faces
        (
            (3 7 6 2)
	    (2 6 11 9)
        );
    }
    inlet
    {
        type patch;
        faces
        (
            (0 4 7 3)
        );
    }
    outlet
    {
        type patch;
        faces
        (
            (8 9 11 10)
	    (10 15 14 8)
        );
    }

    bottom
    {
        type wall;
        faces
        (
            (1 5 4 0)
	    (12 14 15 13)
            (12 13 5 1)
        );
    }


    frontAndBack
    {
        type empty;
        faces
        (
            (0 3 2 1)
            (4 5 6 7)
	    (5 10 11 6)
	    (1 2 9 8)
	    (12 1 8 14)
	    (13 15 10 5)
        );
    }
);

mergePatchPairs
(
);

// ************************************************************************* //
